LTspice 24.0.9 for Windows
Circuit: * C:\Farris Files\School\Side Projects\Electric Scooter\custom-escooter\ContRol Interface Board\Draft1.asc
Start Time: Wed Sep  3 21:18:17 2025
solver = Normal
Maximum thread count: 16
tnom = 27
temp = 27
method = modified trap
Direct Newton iteration for .op point succeeded.
Total elapsed time: 0.028 seconds.

